data_genice
#
#Cage composition:
# (12,14,15,16) = (2,6,0,0,)
#
_cell_length_a                12.747893943706938
_cell_length_b                12.747893943706938
_cell_length_c                25.495787887413876
_cell_angle_alpha             90.0
_cell_angle_beta              90.0
_cell_angle_gamma             90.0

_symmetry_cell_setting        'orthorhombic'
_symmetry_space_group_name_H-M   'P 1 '

loop_
  _symmetry_equiv_pos_as_xyz
X,Y,Z

loop_
_atom_site_label
_atom_site_type_symbol
_atom_site_fract_x
_atom_site_fract_y
_atom_site_fract_z
    O0     O    0.6215    0.8112    0.2517
    H1     H    0.6427    0.7724    0.2214
    H2     H    0.6639    0.8731    0.2510
    O3     O    0.3115    0.6862    0.1587
    H4     H    0.3709    0.6673    0.1377
    H5     H    0.2697    0.7293    0.1362
    O6     O    0.3173    0.3115    0.3431
    H7     H    0.2723    0.2697    0.3646
    H8     H    0.2754    0.3709    0.3336
    O9     O    0.8773    0.0000    0.3415
   H10     H    0.8567   -0.0594    0.3620
   H11     H    0.8567    0.0594    0.3620
   O12     O    0.6852    0.8719    0.0017
   H13     H    0.6856    0.9470    0.0014
   H14     H    0.7255    0.8525   -0.0285
   O15     O    0.5035    0.3785    0.4056
   H16     H    0.5020    0.3361    0.4366
   H17     H    0.4428    0.3573    0.3862
   O18     O    0.8115    0.8173    0.4069
   H19     H    0.8709    0.7754    0.4164
   H20     H    0.7697    0.7723    0.3854
   O21     O    0.8138    0.1885    0.0913
   H22     H    0.7707    0.2303    0.1138
   H23     H    0.8327    0.1291    0.1123
   O24     O    0.3719    0.8148    0.2517
   H25     H    0.3525    0.7745    0.2215
   H26     H    0.4470    0.8144    0.2514
   O27     O    0.1829    0.5000    0.1886
   H28     H    0.2240    0.5594    0.1784
   H29     H    0.2240    0.4406    0.1784
   O30     O    0.6923    0.6863    0.3444
   H31     H    0.6297    0.6682    0.3630
   H32     H    0.6682    0.7260    0.3149
   O33     O    0.5000    0.6274    0.0960
   H34     H    0.5000    0.5534    0.0897
   H35     H    0.5000    0.6581    0.0617
   O36     O    0.6863    0.3113    0.1538
   H37     H    0.6682    0.2740    0.1851
   H38     H    0.7260    0.3703    0.1659
   O39     O    0.1274    0.0000    0.3460
   H40     H    0.0534    0.0000    0.3397
   H41     H    0.1581    0.0000    0.3117
   O42     O    0.0000    0.3171    0.0614
   H43     H    0.0594    0.2760    0.0716
   H44     H   -0.0594    0.2760    0.0716
   O45     O    0.6281    0.1852    0.2483
   H46     H    0.6475    0.2255    0.2785
   H47     H    0.5530    0.1856    0.2486
   O48     O    0.7500   -0.0036    0.2482
   H49     H    0.7093    0.0594    0.2492
   H50     H    0.7907   -0.0017    0.2797
   O51     O    0.4964    0.2500    0.0018
   H52     H    0.5594    0.2093    0.0008
   H53     H    0.4983    0.2907   -0.0297
   O54     O   -0.0036    0.5036    0.1250
   H55     H   -0.0017    0.4406    0.1046
   H56     H    0.0594    0.5017    0.1454
   O57     O    0.6887    0.3077    0.3431
   H58     H    0.6297    0.3318    0.3630
   H59     H    0.7260    0.3703    0.3341
   O60     O    0.5000    0.6274    0.4040
   H61     H    0.5000    0.6581    0.4383
   H62     H    0.5000    0.5534    0.4103
   O63     O    0.6887    0.6923    0.1569
   H64     H    0.7260    0.6297    0.1659
   H65     H    0.6297    0.6682    0.1370
   O66     O    0.3080    0.1274    0.0000
   H67     H    0.3205    0.0534    0.0000
   H68     H    0.3765    0.1581    0.0000
   O69     O    0.1274    0.0000    0.1540
   H70     H    0.0534    0.0000    0.1603
   H71     H    0.1581    0.0000    0.1883
   O72     O   -0.0035    0.6888    0.4393
   H73     H    0.0572    0.7276    0.4286
   H74     H   -0.0020    0.6269    0.4180
   O75     O    0.1852    0.4966    0.3140
   H76     H    0.2255    0.5570    0.3238
   H77     H    0.1856    0.4972    0.2765
   O78     O    0.4965    0.3785    0.0944
   H79     H    0.4980    0.3361    0.0634
   H80     H    0.5572    0.3573    0.1138
   O81     O    0.8173    0.1862    0.4058
   H82     H    0.7723    0.2293    0.3848
   H83     H    0.7754    0.1673    0.4355
   O84     O    0.0034    0.3148    0.4360
   H85     H    0.0028    0.3144    0.4735
   H86     H   -0.0570    0.2745    0.4262
   O87     O    0.8173    0.8138    0.0942
   H88     H    0.7723    0.7707    0.1152
   H89     H    0.7754    0.8327    0.0645
   O90     O    0.3773    0.1829    0.2500
   H91     H    0.3567    0.2240    0.2797
   H92     H    0.3567    0.2240    0.2203
   O93     O    0.8112    0.4965    0.3107
   H94     H    0.8731    0.4980    0.3320
   H95     H    0.7724    0.5572    0.3214
   O96     O    0.3115    0.3138    0.1587
   H97     H    0.3709    0.3327    0.1377
   H98     H    0.2697    0.2707    0.1362
   O99     O    0.3077    0.6863    0.3444
  H100     H    0.3703    0.6682    0.3630
  H101     H    0.3318    0.7260    0.3149
  O102     O    0.3171    0.8773    0.0000
  H103     H    0.2760    0.8567    0.0297
  H104     H    0.2760    0.8567   -0.0297
  O105     O    0.1923    0.1887    0.4069
  H106     H    0.1682    0.1297    0.3870
  H107     H    0.1297    0.2260    0.4159
  O108     O    0.8785    0.0035    0.1556
  H109     H    0.8573   -0.0572    0.1362
  H110     H    0.8361    0.0020    0.1866
  O111     O    0.0035    0.6888    0.0607
  H112     H    0.0020    0.6269    0.0820
  H113     H   -0.0572    0.7276    0.0714
  O114     O    0.6829    0.1227    0.0000
  H115     H    0.7240    0.1433   -0.0297
  H116     H    0.7240    0.1433    0.0297
  O117     O    0.1862    0.8115    0.4087
  H118     H    0.1673    0.8709    0.3877
  H119     H    0.2293    0.7697    0.3862
  O120     O    0.1863    0.1923    0.0944
  H121     H    0.1682    0.1297    0.1130
  H122     H    0.2260    0.1682    0.0649
  O123     O    0.5000    0.7449    0.0000
  H124     H    0.5594    0.7909    0.0000
  H125     H    0.4406    0.7909    0.0000
  O126     O    0.2449    0.0000    0.2500
  H127     H    0.2909   -0.0594    0.2500
  H128     H    0.2909    0.0594    0.2500
  O129     O   -0.0036    0.5036    0.3750
  H130     H    0.0594    0.5017    0.3546
  H131     H   -0.0017    0.4406    0.3954
  O132     O    0.8080    0.5000    0.1863
  H133     H    0.8765    0.5000    0.1710
  H134     H    0.8205    0.5000    0.2233
  O135     O    0.1923    0.8113    0.0931
  H136     H    0.1682    0.8703    0.1130
  H137     H    0.1297    0.7740    0.0841
  O138     O    0.6227    0.8171    0.7500
  H139     H    0.6433    0.7760    0.7203
  H140     H    0.6433    0.7760    0.7797
  O141     O    0.3137    0.6887    0.6538
  H142     H    0.2740    0.6297    0.6659
  H143     H    0.3318    0.7260    0.6851
  O144     O    0.3173    0.3115    0.8431
  H145     H    0.2754    0.3709    0.8336
  H146     H    0.2723    0.2697    0.8646
  O147     O    0.8785   -0.0035    0.8444
  H148     H    0.8573    0.0572    0.8638
  H149     H    0.8361   -0.0020    0.8134
  O150     O    0.6829    0.8773    0.5000
  H151     H    0.7240    0.8567    0.4703
  H152     H    0.7240    0.8567    0.5297
  O153     O    0.5034    0.3719    0.9074
  H154     H    0.5028    0.4470    0.9072
  H155     H    0.4430    0.3525    0.8873
  O156     O    0.8077    0.8113    0.9069
  H157     H    0.8703    0.7740    0.9159
  H158     H    0.8318    0.8703    0.8870
  O159     O    0.8173    0.1862    0.5942
  H160     H    0.7754    0.1673    0.5645
  H161     H    0.7723    0.2293    0.6152
  O162     O    0.3726    0.8080    0.7500
  H163     H    0.3419    0.8765    0.7500
  H164     H    0.4466    0.8205    0.7500
  O165     O    0.1920    0.5000    0.6863
  H166     H    0.1795    0.5000    0.7233
  H167     H    0.1235    0.5000    0.6710
  O168     O    0.6827    0.6885    0.8431
  H169     H    0.7277    0.7303    0.8646
  H170     H    0.7246    0.6291    0.8336
  O171     O    0.5035    0.6215    0.5944
  H172     H    0.5020    0.6639    0.5634
  H173     H    0.4428    0.6427    0.6138
  O174     O    0.6923    0.3137    0.6556
  H175     H    0.6682    0.2740    0.6851
  H176     H    0.6297    0.3318    0.6370
  O177     O    0.1274    0.0000    0.8460
  H178     H    0.1581    0.0000    0.8117
  H179     H    0.0534    0.0000    0.8397
  O180     O    0.0000    0.3171    0.5614
  H181     H   -0.0594    0.2760    0.5716
  H182     H    0.0594    0.2760    0.5716
  O183     O    0.6215    0.1888    0.7483
  H184     H    0.6639    0.1269    0.7490
  H185     H    0.6427    0.2276    0.7786
  O186     O    0.7500    0.0036    0.7518
  H187     H    0.7907    0.0017    0.7203
  H188     H    0.7093   -0.0594    0.7508
  O189     O    0.5036    0.2500    0.4982
  H190     H    0.4406    0.2093    0.4992
  H191     H    0.5017    0.2907    0.5297
  O192     O    0.0000    0.5000    0.6276
  H193     H    0.0000    0.4406    0.6046
  H194     H    0.0000    0.5594    0.6046
  O195     O    0.6887    0.3077    0.8431
  H196     H    0.7260    0.3703    0.8341
  H197     H    0.6297    0.3318    0.8630
  O198     O    0.4965    0.6215    0.9056
  H199     H    0.5572    0.6427    0.8862
  H200     H    0.4980    0.6639    0.9366
  O201     O    0.6887    0.6923    0.6569
  H202     H    0.6297    0.6682    0.6370
  H203     H    0.7260    0.6297    0.6659
  O204     O    0.3171    0.1227    0.5000
  H205     H    0.2760    0.1433    0.4703
  H206     H    0.2760    0.1433    0.5297
  O207     O    0.1281    0.0034    0.6574
  H208     H    0.0530    0.0028    0.6572
  H209     H    0.1475   -0.0570    0.6373
  O210     O   -0.0034    0.6852    0.9360
  H211     H    0.0570    0.7255    0.9262
  H212     H   -0.0028    0.6856    0.9735
  O213     O    0.1888    0.4965    0.8107
  H214     H    0.1269    0.4980    0.8320
  H215     H    0.2276    0.5572    0.8214
  O216     O    0.5034    0.3719    0.5926
  H217     H    0.5028    0.4470    0.5928
  H218     H    0.4430    0.3525    0.6127
  O219     O    0.8115    0.1827    0.9069
  H220     H    0.7697    0.2277    0.8854
  H221     H    0.8709    0.2246    0.9164
  O222     O   -0.0034    0.3148    0.9360
  H223     H   -0.0028    0.3144    0.9735
  H224     H    0.0570    0.2745    0.9262
  O225     O    0.8115    0.8173    0.5931
  H226     H    0.7697    0.7723    0.6146
  H227     H    0.8709    0.7754    0.5836
  O228     O    0.3719    0.1852    0.7483
  H229     H    0.4470    0.1856    0.7486
  H230     H    0.3525    0.2255    0.7785
  O231     O    0.8080    0.5000    0.8137
  H232     H    0.8205    0.5000    0.7767
  H233     H    0.8765    0.5000    0.8290
  O234     O    0.3137    0.3113    0.6538
  H235     H    0.2740    0.3703    0.6659
  H236     H    0.3318    0.2740    0.6851
  O237     O    0.3077    0.6863    0.8444
  H238     H    0.3318    0.7260    0.8149
  H239     H    0.3703    0.6682    0.8630
  O240     O    0.3148    0.8719    0.5017
  H241     H    0.3144    0.9470    0.5014
  H242     H    0.2745    0.8525    0.4715
  O243     O    0.1863    0.1923    0.9056
  H244     H    0.2260    0.1682    0.9351
  H245     H    0.1682    0.1297    0.8870
  O246     O    0.8773    0.0000    0.6585
  H247     H    0.8567    0.0594    0.6380
  H248     H    0.8567   -0.0594    0.6380
  O249     O   -0.0034    0.6852    0.5640
  H250     H   -0.0028    0.6856    0.5265
  H251     H    0.0570    0.7255    0.5738
  O252     O    0.6920    0.1274    0.5000
  H253     H    0.6795    0.0534    0.5000
  H254     H    0.6235    0.1581    0.5000
  O255     O    0.1862    0.8115    0.9087
  H256     H    0.2293    0.7697    0.8862
  H257     H    0.1673    0.8709    0.8877
  O258     O    0.1862    0.1885    0.5913
  H259     H    0.1673    0.1291    0.6123
  H260     H    0.2293    0.2303    0.6138
  O261     O    0.5000    0.7449    0.5000
  H262     H    0.5594    0.7909    0.5000
  H263     H    0.4406    0.7909    0.5000
  O264     O    0.2500   -0.0036    0.7518
  H265     H    0.2907    0.0594    0.7508
  H266     H    0.2093   -0.0017    0.7203
  O267     O    0.0000    0.5000    0.8724
  H268     H    0.0000    0.5594    0.8954
  H269     H    0.0000    0.4406    0.8954
  O270     O    0.8112    0.5035    0.6893
  H271     H    0.8731    0.5020    0.6680
  H272     H    0.7724    0.4428    0.6786
  O273     O    0.1827    0.8138    0.5942
  H274     H    0.2246    0.8327    0.5645
  H275     H    0.2277    0.7707    0.6152
 Me276    Me    0.5000    0.5000    0.2500
G14277   G14    0.0000    0.2500    0.2500
G14278   G14    0.5000    0.0000    0.8750
G14279   G14    0.7500    0.5000    0.5000
G14280   G14    0.0000    0.7500    0.2500
G14281   G14    0.5000    0.0000    0.3750
G14282   G14    0.0000    0.2500    0.7500

